Version 4
SHEET 1 2228 788
WIRE 736 -272 688 -272
WIRE 1216 -272 1216 -288
WIRE 1216 -272 816 -272
WIRE 1280 -272 1216 -272
WIRE 1216 -224 1216 -272
WIRE 1280 -192 1280 -272
WIRE 1312 -192 1280 -192
WIRE 1360 -192 1312 -192
WIRE 1552 -192 1488 -192
WIRE 1664 -192 1632 -192
WIRE 1712 -192 1664 -192
WIRE 2112 -192 1712 -192
WIRE 1312 -160 1280 -160
WIRE 1360 -160 1312 -160
WIRE 1520 -160 1488 -160
WIRE 2112 -160 2112 -192
WIRE 1664 -144 1664 -192
WIRE 1360 -128 1328 -128
WIRE 1616 -128 1488 -128
WIRE 1360 -96 1328 -96
WIRE 1504 -96 1488 -96
WIRE 736 -80 688 -80
WIRE 1216 -80 1216 -144
WIRE 1216 -80 816 -80
WIRE 1280 -80 1280 -160
WIRE 1280 -80 1216 -80
WIRE 1216 -64 1216 -80
WIRE 1328 -64 1328 -96
WIRE 1664 -64 1664 -80
WIRE 2112 -64 2112 -80
WIRE 2112 -64 1664 -64
WIRE 1664 -48 1664 -64
WIRE 1504 -16 1504 -96
WIRE 1520 -16 1504 -16
WIRE 1616 -16 1616 -128
WIRE 1616 -16 1600 -16
WIRE 128 32 -160 32
WIRE 544 32 256 32
WIRE 128 48 128 32
WIRE 256 48 256 32
WIRE 1504 80 1504 -16
WIRE 1520 80 1504 80
WIRE 1616 80 1616 -16
WIRE 1616 80 1600 80
WIRE 128 144 128 128
WIRE 192 144 128 144
WIRE 256 144 256 128
WIRE 256 144 192 144
WIRE -528 176 -544 176
WIRE -368 176 -384 176
WIRE 80 192 32 192
WIRE 192 192 192 144
WIRE 192 192 160 192
WIRE 224 192 192 192
WIRE 352 192 304 192
WIRE 32 208 32 192
WIRE 352 208 352 192
WIRE -544 224 -544 176
WIRE -544 224 -608 224
WIRE -368 224 -368 176
WIRE -336 224 -368 224
WIRE -304 224 -336 224
WIRE 352 240 352 208
WIRE 544 240 544 32
WIRE 656 240 544 240
WIRE -336 256 -336 224
WIRE 32 256 32 208
WIRE -608 272 -608 224
WIRE -544 272 -544 224
WIRE -528 272 -544 272
WIRE -368 272 -368 224
WIRE -368 272 -384 272
WIRE 656 272 656 240
WIRE 704 272 656 272
WIRE 864 272 832 272
WIRE 704 304 656 304
WIRE 1200 304 832 304
WIRE 1312 304 1280 304
WIRE 1408 304 1312 304
WIRE 656 320 656 304
WIRE 656 320 544 320
WIRE 1408 320 1408 304
WIRE 704 336 688 336
WIRE 864 336 832 336
WIRE 1312 336 1312 304
WIRE -880 352 -880 336
WIRE -768 352 -768 336
WIRE -608 368 -608 304
WIRE -336 368 -336 336
WIRE -336 368 -608 368
WIRE -304 368 -336 368
WIRE 32 368 32 320
WIRE 352 368 352 336
WIRE 1312 416 1312 400
WIRE 1408 416 1408 400
WIRE 1408 416 1312 416
WIRE 32 432 32 368
WIRE 352 432 352 368
WIRE 1312 432 1312 416
WIRE -880 448 -880 432
WIRE -768 448 -768 432
WIRE 816 464 816 448
WIRE 816 512 816 496
WIRE -880 528 -880 512
WIRE -768 528 -768 512
WIRE -160 592 -160 32
WIRE -96 592 -160 592
WIRE 32 592 32 512
WIRE 32 592 -32 592
WIRE 160 592 32 592
WIRE 352 592 352 512
WIRE 352 592 224 592
WIRE 416 592 352 592
WIRE 544 592 544 320
WIRE 544 592 480 592
WIRE 32 624 32 592
WIRE 80 624 32 624
WIRE 80 640 80 624
WIRE -160 656 -160 592
WIRE 32 656 32 624
WIRE 352 656 352 592
WIRE 544 656 544 592
FLAG 352 656 Vp+
FLAG 544 656 Vp-
FLAG 32 656 Vb-
FLAG -160 656 Vb+
FLAG -304 224 G
FLAG -304 368 S
FLAG 352 208 S
FLAG 432 288 G
FLAG 352 368 D
FLAG 32 368 A
FLAG 32 208 K
FLAG -608 480 Vp+
FLAG -608 512 Vp-
FLAG 80 640 0
FLAG -416 448 Vb+
FLAG -416 528 Vb-
FLAG -880 528 D
FLAG -880 336 S
FLAG -768 528 A
FLAG -768 336 K
FLAG 816 512 0
FLAG 816 448 +5V
FLAG 688 336 +5V
FLAG 864 272 0
FLAG 864 336 0
FLAG 1312 432 0
FLAG 1312 304 Isen
FLAG 688 -272 Vp+
FLAG 688 -80 Vp-
FLAG 1328 -128 +5V
FLAG 1328 -64 0
FLAG 1520 -160 0
FLAG 1312 -192 b+
FLAG 1312 -160 b-
FLAG 1712 -192 out
FLAG 1664 -48 0
SYMBOL ind2 112 32 R0
SYMATTR InstName L1
SYMATTR Value 50u
SYMATTR Type ind
SYMBOL ind2 272 32 M0
SYMATTR InstName L2
SYMATTR Value 50u
SYMATTR Type ind
SYMBOL EXTRA\\IRF\\NMOSFET\\IRFP4332PBF 384 288 R180
WINDOW 3 63 30 VLeft 0
SYMATTR InstName U1
SYMBOL diode 16 320 M180
WINDOW 0 24 64 Left 2
WINDOW 3 24 0 Left 2
SYMATTR InstName D1
SYMATTR Value 80CLQ150
SYMBOL cap -32 576 R90
WINDOW 0 0 32 VBottom 2
WINDOW 3 32 32 VTop 2
SYMATTR InstName C1
SYMATTR Value 4.7u
SYMBOL cap 224 576 R90
WINDOW 0 0 32 VBottom 2
WINDOW 3 32 32 VTop 2
SYMATTR InstName C2
SYMATTR Value 6.8u
SYMBOL cap 480 576 R90
WINDOW 0 0 32 VBottom 2
WINDOW 3 32 32 VTop 2
SYMATTR InstName C3
SYMATTR Value 4.7u
SYMBOL MiniSyms4\\voltage- -608 288 R0
WINDOW 3 -17 -49 VRight 0
WINDOW 123 0 0 Left 0
WINDOW 39 0 0 Left 0
SYMATTR InstName Driver
SYMATTR Value PULSE(-5 15 0 1n 1n 5u 10u)
SYMBOL diode -528 288 R270
WINDOW 0 32 32 VTop 2
WINDOW 3 0 32 VBottom 2
SYMATTR InstName D2
SYMATTR Value 1N4148
SYMBOL diode -384 160 R90
WINDOW 0 0 32 VBottom 2
WINDOW 3 32 32 VTop 2
SYMATTR InstName D3
SYMATTR Value 1N4148
SYMBOL res -368 256 R90
WINDOW 0 0 56 VBottom 2
WINDOW 3 32 56 VTop 2
SYMATTR InstName R1
SYMATTR Value 4.7
SYMBOL res -432 160 R90
WINDOW 0 0 56 VBottom 2
WINDOW 3 32 56 VTop 2
SYMATTR InstName R2
SYMATTR Value 4.7
SYMBOL ind 336 416 R0
SYMATTR InstName L3
SYMATTR Value 1n
SYMBOL ind 16 416 R0
SYMATTR InstName L4
SYMATTR Value 1n
SYMBOL ind 320 176 R90
WINDOW 0 5 56 VBottom 0
WINDOW 3 32 56 VTop 0
SYMATTR InstName L5
SYMATTR Value 1n
SYMBOL ind 176 176 R90
WINDOW 0 5 56 VBottom 0
WINDOW 3 32 56 VTop 0
SYMATTR InstName L6
SYMATTR Value 1n
SYMBOL res -352 240 R0
SYMATTR InstName R3
SYMATTR Value 10k
SYMBOL MiniSyms4\\voltage- -608 496 R0
WINDOW 123 0 0 Left 0
WINDOW 39 0 0 Left 0
SYMATTR InstName Panel
SYMATTR Value 31.8
SYMBOL res -432 432 R0
SYMATTR InstName R4
SYMATTR Value 4.5
SYMBOL res -896 336 R0
SYMATTR InstName R5
SYMATTR Value 10
SYMBOL cap -896 448 R0
SYMATTR InstName C4
SYMATTR Value 10n
SYMBOL res -784 336 R0
SYMATTR InstName R6
SYMATTR Value 10
SYMBOL cap -784 448 R0
SYMATTR InstName C5
SYMATTR Value 10n
SYMBOL res 528 224 R0
SYMATTR InstName R7
SYMATTR Value 500u
SYMATTR SpiceLine tol=5 pwr=3
SYMBOL AutoGenerated\\INA211 768 304 R0
SYMATTR InstName U2
SYMBOL MiniSyms4\\voltage- 816 480 R0
WINDOW 123 0 0 Left 0
WINDOW 39 0 0 Left 0
SYMATTR InstName V1
SYMATTR Value 5
SYMBOL res 1296 288 R90
WINDOW 0 0 56 VBottom 2
WINDOW 3 32 56 VTop 2
SYMATTR InstName R8
SYMATTR Value 100
SYMBOL res 1392 416 M180
WINDOW 0 36 76 Left 2
WINDOW 3 36 40 Left 2
SYMATTR InstName Rload1
SYMATTR Value 10k
SYMBOL cap 1296 336 R0
SYMATTR InstName C6
SYMATTR Value 100n
SYMBOL AutoGenerated\\INA826 1424 -144 R0
SYMATTR InstName U3
SYMBOL res 1616 -32 R90
WINDOW 0 0 56 VBottom 2
WINDOW 3 32 56 VTop 2
SYMATTR InstName R9
SYMATTR Value 100k
SYMBOL res 832 -288 R90
WINDOW 0 0 56 VBottom 2
WINDOW 3 32 56 VTop 2
SYMATTR InstName R10
SYMATTR Value 120k
SYMBOL res 832 -96 R90
WINDOW 0 0 56 VBottom 2
WINDOW 3 32 56 VTop 2
SYMATTR InstName R11
SYMATTR Value 120k
SYMBOL cap 1648 -144 R0
SYMATTR InstName C7
SYMATTR Value 100n
SYMBOL res 1648 -208 R90
WINDOW 0 0 56 VBottom 2
WINDOW 3 32 56 VTop 2
SYMATTR InstName R13
SYMATTR Value 100
SYMBOL res 2096 -176 R0
SYMATTR InstName Rloadb1
SYMATTR Value 10k
SYMBOL res 1616 64 R90
WINDOW 0 0 56 VBottom 2
WINDOW 3 32 56 VTop 2
SYMATTR InstName R14
SYMATTR Value 100k
SYMBOL res 1200 -384 R0
SYMATTR InstName R15
SYMATTR Value 10k
SYMBOL res 1200 -80 R0
SYMATTR InstName R16
SYMATTR Value 10k
TEXT -616 648 Left 2 !.tran 0 300u 0 startup
TEXT 112 8 Left 2 !K1  L1   L2 .98
