Version 4
SHEET 1 1440 680
WIRE -272 -240 -272 -256
WIRE -304 -224 -480 -224
WIRE -192 -208 -240 -208
WIRE -160 -208 -192 -208
WIRE -48 -208 -80 -208
WIRE 0 -208 -48 -208
WIRE 128 -208 80 -208
WIRE -304 -192 -368 -192
WIRE -272 -160 -272 -176
WIRE -736 -144 -768 -144
WIRE -576 -144 -656 -144
WIRE -480 -144 -480 -224
WIRE -480 -144 -576 -144
WIRE 496 -144 384 -144
WIRE 592 -144 560 -144
WIRE 720 -144 592 -144
WIRE -576 -112 -576 -144
WIRE -1024 -80 -1024 -144
WIRE -768 -80 -768 -144
WIRE -368 -80 -368 -192
WIRE -304 -80 -368 -80
WIRE -192 -80 -192 -208
WIRE -192 -80 -224 -80
WIRE -368 -64 -368 -80
WIRE 32 -64 32 -80
WIRE 592 -64 592 -144
WIRE 624 -64 592 -64
WIRE -48 -48 -48 -208
WIRE 0 -48 -48 -48
WIRE 720 -48 720 -144
WIRE 720 -48 688 -48
WIRE 752 -48 720 -48
WIRE 944 -48 896 -48
WIRE 128 -32 128 -208
WIRE 128 -32 64 -32
WIRE 176 -32 128 -32
WIRE 272 -32 256 -32
WIRE 288 -32 272 -32
WIRE 384 -32 384 -144
WIRE 384 -32 368 -32
WIRE 400 -32 384 -32
WIRE 528 -32 480 -32
WIRE 624 -32 528 -32
WIRE -768 -16 -768 -80
WIRE -576 -16 -576 -32
WIRE 0 -16 -48 -16
WIRE -1024 0 -1024 -48
WIRE 32 16 32 0
WIRE 944 16 944 -48
WIRE -368 32 -368 16
WIRE -304 32 -368 32
WIRE -192 32 -224 32
WIRE 272 32 272 -32
WIRE 528 32 528 -32
WIRE -768 64 -768 16
WIRE -768 96 -768 64
WIRE -736 96 -768 96
WIRE -576 96 -576 64
WIRE -576 96 -656 96
WIRE -480 96 -576 96
WIRE -272 128 -272 112
WIRE -368 144 -368 32
WIRE -304 144 -368 144
WIRE -192 160 -192 32
WIRE -192 160 -240 160
WIRE -160 160 -192 160
WIRE -48 160 -48 -16
WIRE -48 160 -80 160
WIRE 0 160 -48 160
WIRE 272 160 272 96
WIRE 272 160 80 160
WIRE 528 160 528 96
WIRE 528 160 272 160
WIRE 752 160 528 160
WIRE 944 160 944 96
WIRE -480 176 -480 96
WIRE -304 176 -480 176
WIRE 752 176 752 160
WIRE -272 208 -272 192
FLAG 752 176 0
FLAG -1024 0 0
FLAG -1024 -144 +5V
FLAG -272 -160 +5V
FLAG -272 112 +5V
FLAG 32 -80 +5V
FLAG 32 16 0
FLAG -272 -256 0
FLAG -272 208 0
FLAG 752 -48 out
IOPIN 752 -48 Out
FLAG -576 -144 inu
FLAG -576 96 ind
FLAG -768 64 a+
FLAG -768 -80 a-
FLAG -192 -208 du
FLAG -192 160 dd
FLAG 896 -48 out
IOPIN 896 -48 In
FLAG 944 160 0
FLAG 656 -16 0
FLAG 656 -80 +5V
DATAFLAG 944 0 ""
SYMBOL EXTRA\\ExtraOpamps\\LM324_NS -272 -208 M180
SYMATTR InstName U1
SYMBOL EXTRA\\ExtraOpamps\\LM324_NS -272 160 R0
SYMATTR InstName U2
SYMBOL EXTRA\\ExtraOpamps\\LM324_NS 32 -32 R0
SYMATTR InstName U3
SYMBOL res -208 -64 M270
WINDOW 0 32 56 VTop 2
WINDOW 3 0 56 VBottom 2
SYMATTR InstName Rf1u
SYMATTR Value 12k
SYMBOL res -208 16 R90
WINDOW 0 0 56 VBottom 2
WINDOW 3 32 56 VTop 2
SYMATTR InstName Rf1d
SYMATTR Value 12k
SYMBOL res -64 144 R90
WINDOW 0 0 56 VBottom 2
WINDOW 3 32 56 VTop 2
SYMATTR InstName Ri2d
SYMATTR Value 33k
SYMBOL res -64 -224 R90
WINDOW 0 0 56 VBottom 2
WINDOW 3 32 56 VTop 2
SYMATTR InstName Ri2u
SYMATTR Value 33k
SYMBOL res 96 -224 R90
WINDOW 0 0 56 VBottom 2
WINDOW 3 32 56 VTop 2
SYMATTR InstName Rf2u
SYMATTR Value 33k
SYMBOL res 96 144 R90
WINDOW 0 0 56 VBottom 2
WINDOW 3 32 56 VTop 2
SYMATTR InstName Rf2d
SYMATTR Value 33k
SYMBOL res -352 32 R180
WINDOW 0 36 76 Left 2
WINDOW 3 36 40 Left 2
SYMATTR InstName Rg
SYMATTR Value 33k
SYMBOL MiniSyms4\\signal- -768 0 R180
WINDOW 3 91 34 Center 2
WINDOW 123 91 6 Center 2
WINDOW 39 0 0 Left 2
WINDOW 0 22 -10 Left 0
SYMATTR Value SINE(22 22 10)
SYMATTR Value2 AC 1.
SYMATTR InstName V1
SYMBOL res -640 -160 R90
WINDOW 0 0 56 VBottom 2
WINDOW 3 32 56 VTop 2
SYMATTR InstName Rau
SYMATTR Value 180k
SYMBOL res -560 -16 R180
WINDOW 0 36 76 Left 2
WINDOW 3 36 40 Left 2
SYMATTR InstName Rbu
SYMATTR Value 10k
SYMBOL res -560 80 R180
WINDOW 0 36 76 Left 2
WINDOW 3 36 40 Left 2
SYMATTR InstName Rbd
SYMATTR Value 10k
SYMBOL res -752 112 R270
WINDOW 0 32 56 VTop 2
WINDOW 3 0 56 VBottom 2
SYMATTR InstName Rad
SYMATTR Value 180k
SYMBOL MiniSyms4\\voltage- -1024 -64 R0
WINDOW 123 0 0 Left 0
WINDOW 39 0 0 Left 0
SYMATTR InstName V2
SYMATTR Value 5
SYMBOL cap 496 -128 R270
WINDOW 0 32 32 VTop 2
WINDOW 3 0 32 VBottom 2
SYMATTR InstName C1
SYMATTR Value 100n
SYMBOL res 384 -16 R270
WINDOW 0 32 56 VTop 2
WINDOW 3 0 56 VBottom 2
SYMATTR InstName R1
SYMATTR Value 560
SYMBOL res 272 -16 R270
WINDOW 0 32 56 VTop 2
WINDOW 3 0 56 VBottom 2
SYMATTR InstName R2
SYMATTR Value 560
SYMBOL res 160 -16 R270
WINDOW 0 32 56 VTop 2
WINDOW 3 0 56 VBottom 2
SYMATTR InstName R3
SYMATTR Value 560
SYMBOL cap 256 32 R0
SYMATTR InstName C2
SYMATTR Value 100n
SYMBOL cap 512 32 R0
SYMATTR InstName C3
SYMATTR Value 100n
SYMBOL EXTRA\\ExtraOpamps\\LM324_NS 656 -48 R0
SYMATTR InstName U4
SYMBOL res 928 0 R0
SYMATTR InstName R4
SYMATTR Value 10k
TEXT -1056 232 Left 2 !.tran 0 0.3 0
TEXT -768 -336 Left 2 ;G = (Rb/(Ra+Rb)) * (1+(2*Rf/Rg)) * (Rf2/Ri2)
TEXT -1056 200 Left 2 !;.ac dec 100 1 10000000
